OPT_V10/Two_days_MYC3/powerflow_results_t30.txt
Pandapower Network Debug Info
==================================================

BUS:
       vm_pu  va_degree      p_mw    q_mvar
0   0.993052   0.112645  0.001017  0.001194
1   0.988567   0.179153  0.001761  0.001609
2   0.984472   0.269167  0.001951  0.003212
3   0.989606   0.183789  0.002289  0.003612
4   0.999890   0.000721  0.010420  0.008363
5   0.999877   0.000800  0.010292  0.008057
6   0.999866   0.000912  0.011026  0.012577
7   0.999932   0.000533  0.000000  0.000000
8   0.999932   0.000538  0.000000  0.000000
9   1.000000   0.000000 -0.038898 -0.043718
10  1.000000   0.000006  0.000000  0.000000
--------------------------------------------------

LINE:
   p_from_mw  q_from_mvar   p_to_mw  q_to_mvar         pl_mw       ql_mvar  i_from_ka   i_to_ka      i_ka  vm_from_pu  va_from_degree  vm_to_pu  va_to_degree  loading_percent
0   0.038888     0.039718 -0.038885  -0.039716  3.022258e-06  2.356505e-06   0.002140  0.002140  0.002140    1.000000        0.000006  0.999932      0.000533         0.930223
1   0.031740     0.028999 -0.031739  -0.028997  1.429495e-06  1.114601e-06   0.001655  0.001655  0.001655    0.999932        0.000533  0.999890      0.000721         0.719520
2   0.007135     0.009717 -0.007067  -0.009664  6.798594e-05  5.300976e-05   0.017402  0.017402  0.017402    0.999932        0.000538  0.993052      0.112645         7.566027
3  -0.021318    -0.020635  0.021319   0.020635  3.044888e-07  2.374149e-07   0.001142  0.001142  0.001142    0.999877        0.000800  0.999890      0.000721         0.496569
4  -0.011026    -0.012577  0.011026   0.012578  1.368584e-07  1.067108e-07   0.000644  0.000644  0.000644    0.999866        0.000912  0.999877      0.000800         0.279945
5  -0.003725    -0.004831  0.003748   0.004849  2.253094e-05  1.756775e-05   0.008907  0.008907  0.008907    0.988567        0.179153  0.993052      0.112645         3.872737
6  -0.002289    -0.003612  0.002302   0.003622  1.246997e-05  9.723037e-06   0.006238  0.006238  0.006238    0.989606        0.183789  0.993052      0.112645         2.712055
7  -0.001951    -0.003212  0.001965   0.003222  1.318181e-05  1.027807e-05   0.005510  0.005510  0.005510    0.984472        0.269167  0.988567      0.179153         2.395588
--------------------------------------------------

TRAFO:
    p_hv_mw  q_hv_mvar   p_lv_mw  q_lv_mvar    pl_mw  ql_mvar   i_hv_ka   i_lv_ka  vm_hv_pu  va_hv_degree  vm_lv_pu  va_lv_degree  loading_percent
0  0.007145   0.010717 -0.007135  -0.009717  0.00001    0.001  0.000496  0.017402  0.999932      0.000533  0.999932      0.000538         0.128815
1  0.038898   0.043718 -0.038888  -0.039718  0.00001    0.004  0.000483  0.002140  1.000000      0.000000  1.000000      0.000006         0.146295
--------------------------------------------------
